*HEADING
cubit(l-shape.inp): 01/05/2021: 08:20:56
version: 13.1
**
********************************** P A R T S **********************************
*PART, NAME=Part-Default
**
********************************** N O D E S **********************************
*NODE, NSET=ALLNODES
       1,    0.000000e+00,    4.838710e-01,    0.000000e+00
       2,    0.000000e+00,    5.161290e-01,    0.000000e+00
       3,    3.225806e-02,    5.161290e-01,    0.000000e+00
       4,    3.225806e-02,    4.838710e-01,    0.000000e+00
       5,    0.000000e+00,    5.483871e-01,    0.000000e+00
       6,    3.225806e-02,    5.483871e-01,    0.000000e+00
       7,    0.000000e+00,    5.806452e-01,    0.000000e+00
       8,    3.225806e-02,    5.806452e-01,    0.000000e+00
       9,    0.000000e+00,    6.129032e-01,    0.000000e+00
      10,    3.225806e-02,    6.129032e-01,    0.000000e+00
      11,    0.000000e+00,    6.451613e-01,    0.000000e+00
      12,    3.225806e-02,    6.451613e-01,    0.000000e+00
      13,    0.000000e+00,    6.774194e-01,    0.000000e+00
      14,    3.225806e-02,    6.774194e-01,    0.000000e+00
      15,    0.000000e+00,    7.096774e-01,    0.000000e+00
      16,    3.225806e-02,    7.096774e-01,    0.000000e+00
      17,    0.000000e+00,    7.419355e-01,    0.000000e+00
      18,    3.225806e-02,    7.419355e-01,    0.000000e+00
      19,    0.000000e+00,    7.741935e-01,    0.000000e+00
      20,    3.225806e-02,    7.741935e-01,    0.000000e+00
** ... 716 like lines cut
**
********************************** E L E M E N T S ****************************
*ELEMENT, TYPE=S4R, ELSET=EB1
       1,       1,       2,       3,       4
       2,       2,       5,       6,       3
       3,       5,       7,       8,       6
       4,       7,       9,      10,       8
       5,       9,      11,      12,      10
       6,      11,      13,      14,      12
       7,      13,      15,      16,      14
       8,      15,      17,      18,      16
       9,      17,      19,      20,      18
      10,      19,      21,      22,      20
      11,      21,      23,      24,      22
      12,      23,      25,      26,      24
      13,      25,      27,      28,      26
      14,      27,      29,      30,      28
      15,      29,      31,      32,      30
      16,       4,       3,      33,      34
      17,       3,       6,      35,      33
      18,       6,       8,      36,      35
      19,       8,      10,      37,      36
      20,      10,      12,      38,      37
** ... 655 like lines cut
**
********************************** P R O P E R T I E S ************************
*SHELL SECTION, ELSET=EB1, SECTION INTEGRATION=SIMPSON, MATERIAL=Default-Steel
1.000000e+00
**
*END PART
**
**
**
********************************** E N D   P A R T S **********************************
**
**
********************************** A S S E M B L Y ************************************
**
*ASSEMBLY, NAME=ASSEMBLY1
**
*INSTANCE, NAME=Part-Default_1, PART=Part-Default
*END INSTANCE
**
*END ASSEMBLY
**
**
**
*MATERIAL, NAME = FEA Material 1
*ELASTIC, TYPE=ISOTROPIC
1.000000e+02, 2.000000e-01
*DENSITY
0.000000e+00
*CONDUCTIVITY,TYPE=ISO
0.000000e+00
*SPECIFIC HEAT
0.000000e+00
**
*MATERIAL, NAME = Default-Steel
*ELASTIC, TYPE=ISOTROPIC
2.068000e+05, 2.900000e-01
*DENSITY
7.000000e-06
*CONDUCTIVITY,TYPE=ISO
4.500000e-02
*SPECIFIC HEAT
5.000000e+02
**
**
************************************** H I S T O R Y *************************************
**
*PREPRINT
**
**************************************** S T E P 1 ***************************************
*STEP,INC=100,NAME=Default Set
**
*STATIC
1, 1, 1e-05, 1
**
**
**
**
*END STEP
